data/ieee_13_clean/Control_PF_Results/IEEE13Nodeckt_Curr_Elem.Txt

CIRCUIT ELEMENT CURRENTS

(Currents into element from indicated bus)

Power Delivery Elements

  Bus     Phase    Magnitude, A     Angle      (Real)   +j  (Imag)

ELEMENT = "Vsource.SOURCE"
SOURCEBUS     1           17.945 /_  179.4 =    -17.944 +j   0.18993
SOURCEBUS     2           19.791 /_   71.7 =     6.2256 +j    18.786
SOURCEBUS     3           22.303 /_  -58.3 =     11.718 +j   -18.976
------------
SOURCEBUS     0           17.945 /_   -0.6 =     17.944 +j  -0.18993
SOURCEBUS     0           19.791 /_ -108.3 =    -6.2256 +j   -18.786
SOURCEBUS     0           22.303 /_  121.7 =    -11.718 +j    18.976

ELEMENT = "Transformer.SUB"
SOURCEBUS     1           17.945 /_   -0.6 =     17.944 +j  -0.18993
SOURCEBUS     2           19.791 /_ -108.3 =    -6.2256 +j   -18.786
SOURCEBUS     3           22.303 /_  121.7 =    -11.718 +j    18.976
SOURCEBUS     0                0 /_    0.0 =          0 +j         0
------------
650           1           593.38 /_  151.4 =    -521.11 +j     283.8
650           2           435.61 /_   39.1 =     338.07 +j    274.71
650           3           626.07 /_  -86.3 =     39.984 +j   -624.79
650           0           157.66 /_   24.9 =     143.05 +j    66.283

ELEMENT = "Transformer.REG1"
650           1           593.38 /_  -28.6 =     521.11 +j    -283.8
650           0           593.38 /_  151.4 =    -521.11 +j     283.8
------------
RG60          1           558.47 /_  151.4 =    -490.46 +j    267.11
RG60          0           558.47 /_  -28.6 =     490.46 +j   -267.11

ELEMENT = "Transformer.REG2"
650           2           435.61 /_ -140.9 =    -338.07 +j   -274.71
650           0           435.61 /_   39.1 =     338.07 +j    274.71
------------
RG60          2           414.87 /_   39.1 =     321.97 +j    261.63
RG60          0           414.87 /_ -140.9 =    -321.97 +j   -261.63

ELEMENT = "Transformer.REG3"
650           3           626.07 /_   93.7 =    -39.984 +j    624.79
650           0           626.07 /_  -86.3 =     39.984 +j   -624.79
------------
RG60          3           585.79 /_  -86.3 =     37.412 +j    -584.6
RG60          0           585.79 /_   93.7 =    -37.412 +j     584.6

ELEMENT = "Transformer.XFM1"
633           1           81.342 /_  -37.8 =     64.314 +j   -49.802
633           2           61.133 /_ -159.1 =    -57.114 +j   -21.799
633           3            62.69 /_   80.5 =     10.393 +j    61.823
633           0           20.127 /_  150.9 =    -17.593 +j    9.7778
------------
634           1           704.96 /_  142.2 =    -557.39 +j    431.61
634           2           529.82 /_   20.9 =     494.99 +j    188.93
634           3           543.32 /_  -99.5 =    -90.069 +j    -535.8
634           0           174.44 /_  -29.1 =     152.47 +j   -84.741

ELEMENT = "Capacitor.CAP1"
675           1           81.856 /_   84.4 =      7.924 +j    81.471
675           2           87.921 /_  -32.5 =     74.119 +j    -47.29
675           3           81.372 /_ -153.9 =    -73.083 +j   -35.782
------------
675           0           81.856 /_  -95.6 =     -7.924 +j   -81.471
675           0           87.921 /_  147.5 =    -74.119 +j     47.29
675           0           81.372 /_   26.1 =     73.083 +j    35.782

ELEMENT = "Capacitor.CAP2"
611           3           40.656 /_ -154.2 =    -36.595 +j   -17.711
------------
611           0           40.656 /_   25.8 =     36.595 +j    17.711

ELEMENT = "Line.650632"
RG60          1           558.47 /_  -28.6 =     490.46 +j   -267.11
RG60          2           414.87 /_ -140.9 =    -321.97 +j   -261.63
RG60          3           585.79 /_   93.7 =    -37.412 +j     584.6
------------
632           1           558.47 /_  151.4 =    -490.46 +j    267.11
632           2           414.87 /_   39.1 =     321.98 +j    261.63
632           3           585.79 /_  -86.3 =     37.411 +j    -584.6

ELEMENT = "Line.632670"
632           1           478.35 /_  -27.0 =     426.14 +j   -217.31
632           2           215.12 /_ -134.6 =    -151.11 +j   -153.11
632           3           474.82 /_  100.0 =    -82.541 +j    467.59
------------
670           1           478.35 /_  153.0 =    -426.14 +j    217.31
670           2           215.12 /_   45.4 =     151.11 +j    153.11
670           3           474.82 /_  -80.0 =     82.541 +j   -467.59

ELEMENT = "Line.670671"
670           1           470.28 /_  -26.9 =      419.4 +j   -212.78
670           2           186.36 /_ -131.9 =    -124.35 +j   -138.81
670           3            420.3 /_  101.7 =    -85.481 +j    411.52
------------
671           1           470.28 /_  153.1 =     -419.4 +j    212.78
671           2           186.36 /_   48.1 =     124.35 +j    138.81
671           3            420.3 /_  -78.3 =      85.48 +j   -411.52

ELEMENT = "Line.671680"
671           1       0.00057695 /_   85.7 =  4.2887E-005 +j 0.00057536
671           2       0.00060489 /_  -32.8 =  0.00050833 +j -0.00032786
671           3       0.00057987 /_ -154.5 =  -0.00052323 +j -0.00024997
------------
680           1      3.1832E-012 /_    0.0 =  3.1832E-012 +j         0
680           2      3.3106E-012 /_ -105.9 =  -9.0949E-013 +j -3.1832E-012
680           3       1.819E-012 /_   90.0 =          0 +j 1.819E-012

ELEMENT = "Line.632633"
632           1           81.342 /_  -37.8 =     64.314 +j   -49.801
632           2           61.133 /_ -159.1 =    -57.114 +j   -21.799
632           3            62.69 /_   80.5 =     10.392 +j    61.823
------------
633           1           81.342 /_  142.2 =    -64.314 +j    49.802
633           2           61.133 /_   20.9 =     57.114 +j    21.799
633           3            62.69 /_  -99.5 =    -10.393 +j   -61.823

ELEMENT = "Line.632645"
632           3           65.208 /_   57.8 =     34.738 +j    55.185
632           2           143.04 /_ -142.7 =    -113.75 +j   -86.718
------------
645           3           65.209 /_ -122.2 =    -34.738 +j   -55.185
645           2           143.04 /_   37.3 =     113.75 +j    86.718

ELEMENT = "Line.645646"
645           3           65.209 /_   57.8 =     34.738 +j    55.185
645           2           65.209 /_ -122.2 =    -34.738 +j   -55.186
------------
646           3           65.209 /_ -122.2 =    -34.738 +j   -55.185
646           2           65.209 /_   57.8 =     34.738 +j    55.185

ELEMENT = "Line.692675"
692           1           205.43 /_   -5.2 =      204.6 +j   -18.482
692           2           69.662 /_  -55.2 =     39.776 +j   -57.189
692           3           123.87 /_  112.0 =    -46.323 +j    114.88
------------
675           1           205.43 /_  174.8 =     -204.6 +j    18.514
675           2            69.63 /_  124.8 =    -39.747 +j    57.171
675           3           123.87 /_  -68.1 =     46.295 +j    -114.9

ELEMENT = "Line.671684"
671           1           63.122 /_  -39.1 =     48.965 +j   -39.834
671           3           71.207 /_  121.7 =    -37.449 +j    60.564
------------
684           1           63.122 /_  140.9 =    -48.965 +j    39.835
684           3           71.207 /_  -58.3 =     37.449 +j   -60.564

ELEMENT = "Line.684611"
684           3           71.207 /_  121.7 =    -37.449 +j    60.564
------------
611           3           71.207 /_  -58.3 =     37.449 +j   -60.564

ELEMENT = "Line.684652"
684           1           63.122 /_  -39.1 =     48.965 +j   -39.835
------------
652           1           63.139 /_  140.8 =    -48.962 +j    39.866

ELEMENT = "Line.671692"
671           1           229.21 /_  -18.2 =     217.77 +j   -71.529
671           2           69.662 /_  -55.2 =     39.776 +j   -57.189
671           3           178.15 /_  109.5 =    -59.491 +j    167.93
------------
692           1           229.21 /_  161.8 =    -217.77 +j    71.529
692           2           69.662 /_  124.8 =    -39.776 +j    57.189
692           3           178.15 /_  -70.5 =     59.491 +j   -167.93

= = = = = = = = = = = = = = = = = = =  = = = = = = = = = = =  = =

Power Conversion Elements

  Bus     Phase    Magnitude, A     Angle      (Real)   +j  (Imag)

ELEMENT = "Load.671"
671           1           183.28 /_  -33.6 =     152.67 +j   -101.42
671           2           183.29 /_ -153.6 =    -164.12 +j   -81.615
671           3           183.39 /_   86.4 =     11.456 +j    183.03

ELEMENT = "Load.634A"
634           1           704.96 /_  -37.8 =      557.4 +j    -431.6
634           0           704.96 /_  142.2 =     -557.4 +j     431.6

ELEMENT = "Load.634B"
634           2            529.8 /_ -159.1 =    -494.97 +j    -188.9
634           0            529.8 /_   20.9 =     494.97 +j     188.9

ELEMENT = "Load.634C"
634           3           543.34 /_   80.5 =     90.065 +j    535.82
634           0           543.34 /_  -99.5 =    -90.065 +j   -535.82

ELEMENT = "Load.645"
645           2            85.07 /_ -158.2 =    -79.012 +j   -31.529
645           0            85.07 /_   21.8 =     79.012 +j    31.529

ELEMENT = "Load.646"
646           2           65.208 /_ -122.2 =    -34.737 +j   -55.185
646           3           65.208 /_   57.8 =     34.737 +j    55.185

ELEMENT = "Load.692"
692           3           54.658 /_  103.9 =    -13.168 +j    53.048
692           1           54.658 /_  -76.1 =     13.168 +j   -53.048

ELEMENT = "Load.675A"
675           1           220.63 /_  -26.9 =     196.68 +j   -99.978
675           0           220.63 /_  153.1 =    -196.68 +j    99.978

ELEMENT = "Load.675B"
675           2           35.763 /_ -164.0 =    -34.371 +j   -9.8786
675           0           35.763 /_   16.0 =     34.371 +j    9.8786

ELEMENT = "Load.675C"
675           3           153.05 /_   79.9 =     26.786 +j    150.69
675           0           153.05 /_ -100.1 =    -26.786 +j   -150.69

ELEMENT = "Load.611"
611           3           78.285 /_   90.6 =   -0.85587 +j     78.28
611           0           78.285 /_  -89.4 =    0.85587 +j    -78.28

ELEMENT = "Load.652"
652           1           63.139 /_  -39.2 =     48.963 +j   -39.864
652           0           63.139 /_  140.8 =    -48.963 +j    39.864

ELEMENT = "Load.670A"
670           1           8.1259 /_  -33.9 =     6.7461 +j   -4.5299
670           0           8.1259 /_  146.1 =    -6.7461 +j    4.5299

ELEMENT = "Load.670B"
670           2           30.346 /_ -151.9 =    -26.764 +j   -14.301
670           0           30.346 /_   28.1 =     26.764 +j    14.301

ELEMENT = "Load.670C"
670           3            56.15 /_   87.0 =     2.9393 +j    56.073
670           0            56.15 /_  -93.0 =    -2.9393 +j   -56.073

