data/ieee_13_clean/IEEE13Nodeckt_Curr_Seq.Txt

SYMMETRICAL COMPONENT CURRENTS BY CIRCUIT ELEMENT (first 3 phases)

Element            Term      I1         I2         %I2/I1    I0         %I0/I1   %Normal %Emergency

"VSOURCE.SOURCE" .   1       19.93       2.5592    12.84  2.1452E-011     0.00      0.00     0.00
   -                 2       19.93       2.5592    12.84  2.1452E-011     0.00      0.00     0.00
"TRANSFORMER.SUB"    1       19.93       2.5592    12.84  2.0001E-011     0.00     80.78    59.24
   -                 2      550.94       70.748    12.84      52.559     9.54      0.00     0.00
"TRANSFORMER.REG1"   1      593.41            0     0.00           0     0.00     77.71    56.99
   -                 2      558.51            0     0.00           0     0.00      0.00     0.00
"TRANSFORMER.REG2"   1      435.61            0     0.00           0     0.00     57.05    41.84
   -                 2      414.87            0     0.00           0     0.00      0.00     0.00
"TRANSFORMER.REG3"   1      626.12            0     0.00           0     0.00     82.00    60.13
   -                 2      585.84            0     0.00           0     0.00      0.00     0.00
"TRANSFORMER.XFM1"   1      68.382       6.3385     9.27      6.7098     9.81    106.56    78.15
   -                 2      592.65       54.934     9.27      58.152     9.81      0.00     0.00
"CAPACITOR.CAP1" .   1      83.696       1.7183     2.05      3.0344     3.63      0.00     0.00
   -                 2      83.696       1.7183     2.05      3.0344     3.63      0.00     0.00
"CAPACITOR.CAP2" .   1      40.655            0     0.00           0     0.00      0.00     0.00
   -                 2      40.655            0     0.00           0     0.00      0.00     0.00
"LINE.650632" ....   1      519.01       64.238    12.38      47.498     9.15    146.46    97.64
   -                 2      519.01       64.238    12.38      47.498     9.15      0.00     0.00
"LINE.632670" ....   1      388.15       105.09    27.07      71.877    18.52    119.60    79.73
   -                 2      388.15       105.09    27.07      71.877    18.52      0.00     0.00
"LINE.670671" ....   1      357.22       106.37    29.78      72.657    20.34    117.58    78.39
   -                 2      357.22       106.37    29.78      72.657    20.34      0.00     0.00
"LINE.671680" ....   1  1.0179E-012   1.1975E-012   117.65  1.5625E-012   153.51      0.00     0.00
   -                 2  1.0179E-012   1.1975E-012   117.65  1.5625E-012   153.51      0.00     0.00
"LINE.632633" ....   1      68.382       6.3385     9.27      6.7098     9.81     20.34    13.56
   -                 2      68.382       6.3385     9.27      6.7098     9.81      0.00     0.00
"LINE.632645" ....   1      65.208            0     0.00           0     0.00     16.30    10.87
   -                 2      65.208            0     0.00           0     0.00      0.00     0.00
"LINE.645646" ....   1      65.208            0     0.00           0     0.00     16.30    10.87
   -                 2      65.208            0     0.00           0     0.00      0.00     0.00
"LINE.692675" ....   1      119.31        45.12    37.82      67.302    56.41     51.36    34.24
   -                 2      119.31        45.12    37.82      67.302    56.41      0.00     0.00
"LINE.671684" ....   1      63.138            0     0.00           0     0.00     15.78    10.52
   -                 2      63.138            0     0.00           0     0.00      0.00     0.00
"LINE.684611" ....   1       71.21            0     0.00           0     0.00     17.80    11.87
   -                 2       71.21            0     0.00           0     0.00      0.00     0.00
"LINE.684652" ....   1      63.138            0     0.00           0     0.00     15.78    10.52
   -                 2      63.138            0     0.00           0     0.00      0.00     0.00
"LINE.671692" ....   1      141.53       71.788    50.72      67.302    47.55     57.31    38.20
   -                 2      141.53       71.788    50.72      67.302    47.55      0.00     0.00
"LOAD.671" .......   1      183.32     0.067332     0.04  2.0414E-014     0.00      0.00     0.00
"LOAD.634A" ......   1      704.97            0     0.00           0     0.00      0.00     0.00
"LOAD.634B" ......   1      529.77            0     0.00           0     0.00      0.00     0.00
"LOAD.634C" ......   1      543.37            0     0.00           0     0.00      0.00     0.00
"LOAD.645" .......   1      85.068            0     0.00           0     0.00      0.00     0.00
"LOAD.646" .......   1      65.208            0     0.00           0     0.00      0.00     0.00
"LOAD.692" .......   1      54.658            0     0.00           0     0.00      0.00     0.00
"LOAD.675A" ......   1      220.63            0     0.00           0     0.00      0.00     0.00
"LOAD.675B" ......   1      35.762            0     0.00           0     0.00      0.00     0.00
"LOAD.675C" ......   1      153.06            0     0.00           0     0.00      0.00     0.00
"LOAD.611" .......   1      78.285            0     0.00           0     0.00      0.00     0.00
"LOAD.652" .......   1      63.138            0     0.00           0     0.00      0.00     0.00
"LOAD.670A" ......   1      8.1259            0     0.00           0     0.00      0.00     0.00
"LOAD.670B" ......   1      30.345            0     0.00           0     0.00      0.00     0.00
"LOAD.670C" ......   1      56.153            0     0.00           0     0.00      0.00     0.00
